<?xml version="1.0" encoding="UTF-8"?>

<!-- generated on 2024-10-20 20:04:23 by Eclipse SUMO netedit Version 1.21.0
-->

<routes xmlns:xsi="http://www.w3.org/2001/XMLSchema-instance" xsi:noNamespaceSchemaLocation="http://sumo.dlr.de/xsd/routes_file.xsd">
    <!-- Vehicles, persons and containers (sorted by depart) -->
    <flow id="f_0" begin="0.00" from="E5" to="-E6" end="3600.00" vehsPerHour="20"/>
    <flow id="f_1" begin="0.00" from="E5" to="-E3" end="3600.00" vehsPerHour="20"/>
    <flow id="f_10" begin="0.00" from="E4" to="-E6" end="3600.00" vehsPerHour="10"/>
    <flow id="f_11" begin="0.00" from="E4" to="-E3" end="3600.00" vehsPerHour="30"/>
    <flow id="f_2" begin="0.00" from="E5" to="-E4" end="3600.00" vehsPerHour="50"/>
    <flow id="f_3" begin="0.00" from="E6" to="-E3" end="3600.00" vehsPerHour="40"/>
    <flow id="f_4" begin="0.00" from="E6" to="-E4" end="3600.00" vehsPerHour="10"/>
    <flow id="f_5" begin="0.00" from="E6" to="-E5" end="3600.00" vehsPerHour="15"/>
    <flow id="f_6" begin="0.00" from="E3" to="-E6" end="3600.00" vehsPerHour="10"/>
    <flow id="f_7" begin="0.00" from="E3" to="-E5" end="3600.00" vehsPerHour="50"/>
    <flow id="f_8" begin="0.00" from="E3" to="-E4" end="3600.00" vehsPerHour="20"/>
    <flow id="f_9" begin="0.00" from="E4" to="-E5" end="3600.00" vehsPerHour="50"/>
</routes>
