<?xml version="1.0" encoding="UTF-8"?>

<!-- generated on 2024-10-20 20:04:23 by Eclipse SUMO sumo Version 1.21.0
-->

<sumoConfiguration xmlns:xsi="http://www.w3.org/2001/XMLSchema-instance" xsi:noNamespaceSchemaLocation="http://sumo.dlr.de/xsd/sumoConfiguration.xsd">

    <input>
        <net-file value="sumo_prototype1.net.xml"/>
        <route-files value="sumo_prototype1_test.rou.xml"/>
        <additional-files value="sumo_prototype1_test.add.xml"/>
    </input>

</sumoConfiguration>
