<?xml version="1.0" encoding="UTF-8"?>

<!-- generated on 2024-10-20 20:04:23 by Eclipse SUMO netedit Version 1.21.0
<neteditConfiguration xmlns:xsi="http://www.w3.org/2001/XMLSchema-instance" xsi:noNamespaceSchemaLocation="http://sumo.dlr.de/xsd/neteditConfiguration.xsd">

    <input>
        <sumocfg-file value="/home/mathys/Documents/01_IPSA_A5/Mi519/TrafficLightManager/SUMO_prototype/sumo_prototype1_test.sumocfg"/>
        <additional-files value="/home/mathys/Documents/01_IPSA_A5/Mi519/TrafficLightManager/SUMO_prototype/sumo_prototype1_test.add.xml"/>
        <route-files value="/home/mathys/Documents/01_IPSA_A5/Mi519/TrafficLightManager/SUMO_prototype/sumo_prototype1_test.rou.xml"/>
        <sumo-net-file value="/home/mathys/Documents/01_IPSA_A5/Mi519/TrafficLightManager/SUMO_prototype/sumo_prototype1.net.xml"/>
    </input>

    <output>
        <output-file value="/home/mathys/Documents/01_IPSA_A5/Mi519/TrafficLightManager/SUMO_prototype/sumo_prototype1.net.xml"/>
    </output>

    <processing>
        <geometry.min-radius.fix.railways value="false"/>
        <geometry.max-grade.fix value="false"/>
        <offset.disable-normalization value="true"/>
        <lefthand value="0"/>
    </processing>

    <junctions>
        <no-turnarounds value="true"/>
        <junctions.corner-detail value="5"/>
        <junctions.limit-turn-speed value="5.50"/>
        <rectangular-lane-cut value="0"/>
    </junctions>

    <pedestrian>
        <walkingareas value="0"/>
    </pedestrian>

</neteditConfiguration>
-->

<net version="1.20" junctionCornerDetail="5" limitTurnSpeed="5.50" xmlns:xsi="http://www.w3.org/2001/XMLSchema-instance" xsi:noNamespaceSchemaLocation="http://sumo.dlr.de/xsd/net_file.xsd">

    <location netOffset="0.00,0.00" convBoundary="0.00,-100.00,200.00,100.00" origBoundary="-10000000000.00,-10000000000.00,10000000000.00,10000000000.00" projParameter="!"/>

    <edge id=":J6_0" function="internal">
        <lane id=":J6_0_0" index="0" speed="6.51" length="9.03" shape="98.37,7.17 98.02,4.72 96.97,2.97 95.22,1.92 92.77,1.57"/>
    </edge>
    <edge id=":J6_1" function="internal">
        <lane id=":J6_1_0" index="0" speed="13.89" length="14.40" shape="98.37,7.17 98.37,-7.23"/>
    </edge>
    <edge id=":J6_2" function="internal">
        <lane id=":J6_2_0" index="0" speed="8.00" length="4.07" shape="98.37,7.17 98.92,3.32 99.01,3.17"/>
    </edge>
    <edge id=":J6_12" function="internal">
        <lane id=":J6_12_0" index="0" speed="8.00" length="10.13" shape="99.01,3.17 100.57,0.57 103.32,-1.08 107.17,-1.63"/>
    </edge>
    <edge id=":J6_3" function="internal">
        <lane id=":J6_3_0" index="0" speed="6.51" length="9.03" shape="107.17,1.57 104.72,1.92 102.97,2.97 101.92,4.72 101.57,7.17"/>
    </edge>
    <edge id=":J6_4" function="internal">
        <lane id=":J6_4_0" index="0" speed="13.89" length="14.40" shape="107.17,1.57 92.77,1.57"/>
    </edge>
    <edge id=":J6_5" function="internal">
        <lane id=":J6_5_0" index="0" speed="8.00" length="4.07" shape="107.17,1.57 103.32,1.02 103.17,0.93"/>
    </edge>
    <edge id=":J6_13" function="internal">
        <lane id=":J6_13_0" index="0" speed="8.00" length="10.13" shape="103.17,0.93 100.57,-0.63 98.92,-3.38 98.37,-7.23"/>
    </edge>
    <edge id=":J6_6" function="internal">
        <lane id=":J6_6_0" index="0" speed="6.51" length="9.03" shape="101.57,-7.23 101.92,-4.78 102.97,-3.03 104.72,-1.98 107.17,-1.63"/>
    </edge>
    <edge id=":J6_7" function="internal">
        <lane id=":J6_7_0" index="0" speed="13.89" length="14.40" shape="101.57,-7.23 101.57,7.17"/>
    </edge>
    <edge id=":J6_8" function="internal">
        <lane id=":J6_8_0" index="0" speed="8.00" length="4.06" shape="101.57,-7.23 101.02,-3.38 100.93,-3.23"/>
    </edge>
    <edge id=":J6_14" function="internal">
        <lane id=":J6_14_0" index="0" speed="8.00" length="10.13" shape="100.93,-3.23 99.37,-0.63 96.62,1.02 92.77,1.57"/>
    </edge>
    <edge id=":J6_9" function="internal">
        <lane id=":J6_9_0" index="0" speed="6.51" length="9.03" shape="92.77,-1.63 95.22,-1.98 96.97,-3.03 98.02,-4.78 98.37,-7.23"/>
    </edge>
    <edge id=":J6_10" function="internal">
        <lane id=":J6_10_0" index="0" speed="13.89" length="14.40" shape="92.77,-1.63 107.17,-1.63"/>
    </edge>
    <edge id=":J6_11" function="internal">
        <lane id=":J6_11_0" index="0" speed="8.00" length="4.07" shape="92.77,-1.63 96.62,-1.08 96.77,-0.99"/>
    </edge>
    <edge id=":J6_15" function="internal">
        <lane id=":J6_15_0" index="0" speed="8.00" length="10.13" shape="96.77,-0.99 99.37,0.57 101.02,3.32 101.57,7.17"/>
    </edge>

    <edge id="-E3" from="J6" to="J5" priority="-1">
        <lane id="-E3_0" index="0" speed="13.89" length="92.77" shape="92.77,1.57 0.00,1.60"/>
    </edge>
    <edge id="-E4" from="J6" to="J7" priority="-1">
        <lane id="-E4_0" index="0" speed="13.89" length="92.77" shape="98.37,-7.23 98.40,-100.00"/>
    </edge>
    <edge id="-E5" from="J6" to="J8" priority="-1">
        <lane id="-E5_0" index="0" speed="13.89" length="92.83" shape="107.17,-1.63 200.00,-1.60"/>
    </edge>
    <edge id="-E6" from="J6" to="J9" priority="-1">
        <lane id="-E6_0" index="0" speed="13.89" length="92.83" shape="101.57,7.17 101.60,100.00"/>
    </edge>
    <edge id="E3" from="J5" to="J6" priority="-1">
        <lane id="E3_0" index="0" speed="13.89" length="92.77" shape="-0.00,-1.60 92.77,-1.63"/>
    </edge>
    <edge id="E4" from="J7" to="J6" priority="-1">
        <lane id="E4_0" index="0" speed="13.89" length="92.77" shape="101.60,-100.00 101.57,-7.23"/>
    </edge>
    <edge id="E5" from="J8" to="J6" priority="-1">
        <lane id="E5_0" index="0" speed="13.89" length="92.83" shape="200.00,1.60 107.17,1.57"/>
    </edge>
    <edge id="E6" from="J9" to="J6" priority="-1">
        <lane id="E6_0" index="0" speed="13.89" length="92.83" shape="98.40,100.00 98.37,7.17"/>
    </edge>

    <tlLogic id="J6" type="static" programID="0" offset="0">
        <phase duration="42" state="GGgrrrGGgrrr"/>
        <phase duration="3"  state="yyyrrryyyrrr"/>
        <phase duration="42" state="rrrGGgrrrGGg"/>
        <phase duration="3"  state="rrryyyrrryyy"/>
    </tlLogic>

    <junction id="J5" type="dead_end" x="0.00" y="0.00" incLanes="-E3_0" intLanes="" shape="0.00,-0.00 0.00,3.20 0.00,-0.00"/>
    <junction id="J6" type="traffic_light" x="99.97" y="-0.03" incLanes="E6_0 E5_0 E4_0 E3_0" intLanes=":J6_0_0 :J6_1_0 :J6_12_0 :J6_3_0 :J6_4_0 :J6_13_0 :J6_6_0 :J6_7_0 :J6_14_0 :J6_9_0 :J6_10_0 :J6_15_0" shape="96.77,7.17 103.17,7.17 103.62,4.95 104.17,4.17 104.95,3.62 105.95,3.28 107.17,3.17 107.17,-3.23 104.95,-3.67 104.17,-4.23 103.62,-5.01 103.28,-6.01 103.17,-7.23 96.77,-7.23 96.33,-5.01 95.77,-4.23 94.99,-3.67 93.99,-3.34 92.77,-3.23 92.77,3.17 94.99,3.62 95.77,4.17 96.33,4.95 96.66,5.95">
        <request index="0"  response="000000010000" foes="000100010000" cont="0"/>
        <request index="1"  response="111000110000" foes="111100110000" cont="0"/>
        <request index="2"  response="110011110000" foes="110111110000" cont="1"/>
        <request index="3"  response="000000000000" foes="100010000000" cont="0"/>
        <request index="4"  response="000100000100" foes="100110000111" cont="0"/>
        <request index="5"  response="011100000100" foes="111110000110" cont="1"/>
        <request index="6"  response="010000000000" foes="010000000100" cont="0"/>
        <request index="7"  response="110000111000" foes="110000111100" cont="0"/>
        <request index="8"  response="110000110111" foes="110000110111" cont="1"/>
        <request index="9"  response="000000000000" foes="000000100010" cont="0"/>
        <request index="10" response="000100000100" foes="000111100110" cont="0"/>
        <request index="11" response="000100111100" foes="000110111110" cont="1"/>
    </junction>
    <junction id="J7" type="dead_end" x="100.00" y="-100.00" incLanes="-E4_0" intLanes="" shape="100.00,-100.00 96.80,-100.00 100.00,-100.00"/>
    <junction id="J8" type="dead_end" x="200.00" y="0.00" incLanes="-E5_0" intLanes="" shape="200.00,0.00 200.00,-3.20 200.00,0.00"/>
    <junction id="J9" type="dead_end" x="100.00" y="100.00" incLanes="-E6_0" intLanes="" shape="100.00,100.00 103.20,100.00 100.00,100.00"/>

    <junction id=":J6_12_0" type="internal" x="99.01" y="3.17" incLanes=":J6_2_0 E4_0" intLanes=":J6_4_0 :J6_5_0 :J6_6_0 :J6_7_0 :J6_10_0 :J6_11_0"/>
    <junction id=":J6_13_0" type="internal" x="103.17" y="0.93" incLanes=":J6_5_0 E3_0" intLanes=":J6_1_0 :J6_2_0 :J6_7_0 :J6_8_0 :J6_9_0 :J6_10_0"/>
    <junction id=":J6_14_0" type="internal" x="100.93" y="-3.23" incLanes=":J6_8_0 E6_0" intLanes=":J6_0_0 :J6_1_0 :J6_4_0 :J6_5_0 :J6_10_0 :J6_11_0"/>
    <junction id=":J6_15_0" type="internal" x="96.77" y="-0.99" incLanes=":J6_11_0 E5_0" intLanes=":J6_1_0 :J6_2_0 :J6_3_0 :J6_4_0 :J6_7_0 :J6_8_0"/>

    <connection from="E3" to="-E4" fromLane="0" toLane="0" via=":J6_9_0" tl="J6" linkIndex="9" dir="r" state="O"/>
    <connection from="E3" to="-E5" fromLane="0" toLane="0" via=":J6_10_0" tl="J6" linkIndex="10" dir="s" state="O"/>
    <connection from="E3" to="-E6" fromLane="0" toLane="0" via=":J6_11_0" tl="J6" linkIndex="11" dir="l" state="o"/>
    <connection from="E4" to="-E5" fromLane="0" toLane="0" via=":J6_6_0" tl="J6" linkIndex="6" dir="r" state="o"/>
    <connection from="E4" to="-E6" fromLane="0" toLane="0" via=":J6_7_0" tl="J6" linkIndex="7" dir="s" state="o"/>
    <connection from="E4" to="-E3" fromLane="0" toLane="0" via=":J6_8_0" tl="J6" linkIndex="8" dir="l" state="o"/>
    <connection from="E5" to="-E6" fromLane="0" toLane="0" via=":J6_3_0" tl="J6" linkIndex="3" dir="r" state="O"/>
    <connection from="E5" to="-E3" fromLane="0" toLane="0" via=":J6_4_0" tl="J6" linkIndex="4" dir="s" state="O"/>
    <connection from="E5" to="-E4" fromLane="0" toLane="0" via=":J6_5_0" tl="J6" linkIndex="5" dir="l" state="o"/>
    <connection from="E6" to="-E3" fromLane="0" toLane="0" via=":J6_0_0" tl="J6" linkIndex="0" dir="r" state="o"/>
    <connection from="E6" to="-E4" fromLane="0" toLane="0" via=":J6_1_0" tl="J6" linkIndex="1" dir="s" state="o"/>
    <connection from="E6" to="-E5" fromLane="0" toLane="0" via=":J6_2_0" tl="J6" linkIndex="2" dir="l" state="o"/>

    <connection from=":J6_0" to="-E3" fromLane="0" toLane="0" dir="r" state="M"/>
    <connection from=":J6_1" to="-E4" fromLane="0" toLane="0" dir="s" state="M"/>
    <connection from=":J6_2" to="-E5" fromLane="0" toLane="0" via=":J6_12_0" dir="l" state="m"/>
    <connection from=":J6_12" to="-E5" fromLane="0" toLane="0" dir="l" state="M"/>
    <connection from=":J6_3" to="-E6" fromLane="0" toLane="0" dir="r" state="M"/>
    <connection from=":J6_4" to="-E3" fromLane="0" toLane="0" dir="s" state="M"/>
    <connection from=":J6_5" to="-E4" fromLane="0" toLane="0" via=":J6_13_0" dir="l" state="m"/>
    <connection from=":J6_13" to="-E4" fromLane="0" toLane="0" dir="l" state="M"/>
    <connection from=":J6_6" to="-E5" fromLane="0" toLane="0" dir="r" state="M"/>
    <connection from=":J6_7" to="-E6" fromLane="0" toLane="0" dir="s" state="M"/>
    <connection from=":J6_8" to="-E3" fromLane="0" toLane="0" via=":J6_14_0" dir="l" state="m"/>
    <connection from=":J6_14" to="-E3" fromLane="0" toLane="0" dir="l" state="M"/>
    <connection from=":J6_9" to="-E4" fromLane="0" toLane="0" dir="r" state="M"/>
    <connection from=":J6_10" to="-E5" fromLane="0" toLane="0" dir="s" state="M"/>
    <connection from=":J6_11" to="-E6" fromLane="0" toLane="0" via=":J6_15_0" dir="l" state="m"/>
    <connection from=":J6_15" to="-E6" fromLane="0" toLane="0" dir="l" state="M"/>

</net>
