<?xml version="1.0" encoding="UTF-8"?>

<!-- generated on 2024-10-20 20:04:23 by Eclipse SUMO netedit Version 1.21.0
-->

<additional xmlns:xsi="http://www.w3.org/2001/XMLSchema-instance" xsi:noNamespaceSchemaLocation="http://sumo.dlr.de/xsd/additional_file.xsd">
    <!-- Detectors -->
    <inductionLoop id="e1_0" lane="E6_0" pos="90.21" period="300.00" file="e1_0.xml"/>
    <inductionLoop id="e1_1" lane="E5_0" pos="90.28" period="300.00" file="e1_1.xml"/>
    <inductionLoop id="e1_2" lane="E4_0" pos="90.24" period="300.00" file="e1_2.xml"/>
    <inductionLoop id="e1_3" lane="E3_0" pos="90.22" period="300.00" file="e1_3.xml"/>
</additional>
